.MODEL DIO D( IS=1.8E-10 RS=2 BV=50.0 IBV=1e-4+ CJO=1e-12 M=0.333 N=2.06 TT=4.32e-9)
